REMARK  Name = 
REMARK  2 active torsions:
REMARK  status: ('A' for Active; 'I' for Inactive)
REMARK    1  A    between atoms: C_4  and  C_7
REMARK    2  A    between atoms: C_11  and  C_12
REMARK                            x       y       z     vdW  Elec       q    Type
REMARK                         _______ _______ _______ _____ _____    ______ ____
ROOT
ATOM      1  C   UNL     1      -2.828   0.437  -0.166  0.00  0.00    +0.000 A 
ATOM      2  N   UNL     1      -3.379   1.159  -1.159  0.00  0.00    +0.000 NA
ATOM      3  N   UNL     1      -4.693   1.131  -0.912  0.00  0.00    +0.000 N 
ATOM      4  C   UNL     1      -5.026   0.442   0.213  0.00  0.00    +0.000 A 
ATOM      5  C   UNL     1      -3.839  -0.005   0.761  0.00  0.00    +0.000 A 
ATOM      6  H   UNL     1      -5.310   1.611  -1.558  0.00  0.00    +0.000 HD
ENDROOT
BRANCH   1  10
ATOM      7  C   UNL     1       1.403  -0.162   0.098  0.00  0.00    +0.000 A 
ATOM      8  C   UNL     1       0.893   1.000  -0.487  0.00  0.00    +0.000 A 
ATOM      9  C   UNL     1      -0.487   1.185  -0.595  0.00  0.00    +0.000 A 
ATOM     10  C   UNL     1      -1.379   0.203  -0.135  0.00  0.00    +0.000 A 
ATOM     11  C   UNL     1      -0.840  -0.985   0.379  0.00  0.00    +0.000 A 
ATOM     12  C   UNL     1       0.529  -1.149   0.541  0.00  0.00    +0.000 A 
ENDBRANCH   1  10
BRANCH   5  13
ATOM     13  C   UNL     1      -3.764  -0.744   2.019  0.00  0.00    +0.000 A 
ATOM     14  C   UNL     1      -4.774  -1.629   2.404  0.00  0.00    +0.000 A 
ATOM     15  C   UNL     1      -4.611  -2.351   3.577  0.00  0.00    +0.000 A 
ATOM     16  N   UNL     1      -3.523  -2.272   4.370  0.00  0.00    +0.000 NA
ATOM     17  C   UNL     1      -2.565  -1.404   3.991  0.00  0.00    +0.000 A 
ATOM     18  C   UNL     1      -2.658  -0.608   2.863  0.00  0.00    +0.000 A 
ENDBRANCH   5  13
TORSDOF 2
