REMARK  Name = 
REMARK  3 active torsions:
REMARK  status: ('A' for Active; 'I' for Inactive)
REMARK    1  A    between atoms: C_4  and  C_7
REMARK    2  A    between atoms: C_7  and  N_8
REMARK    3  A    between atoms: C_16  and  C_18
REMARK                            x       y       z     vdW  Elec       q    Type
REMARK                         _______ _______ _______ _____ _____    ______ ____
ROOT
ATOM      1  N   UNL     1      -3.717  -0.818  -0.857  0.00  0.00    +0.000 N 
ATOM      2  C   UNL     1      -5.045  -1.116  -0.863  0.00  0.00    +0.000 A 
ATOM      3  S   UNL     1      -6.149  -0.257  -1.872  0.00  0.00    +0.000 S 
ATOM      4  C   UNL     1      -7.462  -1.209  -1.276  0.00  0.00    +0.000 A 
ATOM      5  C   UNL     1      -6.940  -2.157  -0.400  0.00  0.00    +0.000 A 
ATOM      6  N   UNL     1      -5.584  -2.074  -0.152  0.00  0.00    +0.000 NA
ATOM      7  C   UNL     1      -7.806  -3.108   0.163  0.00  0.00    +0.000 A 
ATOM      8  C   UNL     1      -9.173  -3.046  -0.121  0.00  0.00    +0.000 A 
ATOM      9  C   UNL     1      -9.729  -2.041  -0.931  0.00  0.00    +0.000 A 
ATOM     10  C   UNL     1      -8.847  -1.133  -1.556  0.00  0.00    +0.000 A 
ATOM     11  H   UNL     1      -3.240  -1.205  -1.667  0.00  0.00    +0.000 HD
ENDROOT
BRANCH   9  12
ATOM     12  C   UNL     1     -11.206  -1.941  -1.051  0.00  0.00    +0.000 A 
ATOM     13  C   UNL     1     -12.021  -2.203   0.066  0.00  0.00    +0.000 A 
ATOM     14  C   UNL     1     -13.400  -2.142  -0.048  0.00  0.00    +0.000 A 
ATOM     15  N   UNL     1     -14.037  -1.822  -1.189  0.00  0.00    +0.000 NA
ATOM     16  C   UNL     1     -13.254  -1.552  -2.255  0.00  0.00    +0.000 A 
ATOM     17  C   UNL     1     -11.863  -1.597  -2.238  0.00  0.00    +0.000 A 
ENDBRANCH   9  12
BRANCH   1  18
ATOM     18  C   UNL     1      -2.984  -1.164   0.360  0.00  0.00    +0.000 C 
BRANCH  18  22
ATOM     19  C   UNL     1       1.275  -0.595  -0.133  0.00  0.00    +0.000 A 
ATOM     20  C   UNL     1       0.401   0.474  -0.329  0.00  0.00    +0.000 A 
ATOM     21  C   UNL     1      -0.976   0.291  -0.180  0.00  0.00    +0.000 A 
ATOM     22  C   UNL     1      -1.497  -0.964   0.162  0.00  0.00    +0.000 A 
ATOM     23  C   UNL     1      -0.605  -2.031   0.358  0.00  0.00    +0.000 A 
ATOM     24  C   UNL     1       0.772  -1.847   0.210  0.00  0.00    +0.000 A 
ENDBRANCH  18  22
ENDBRANCH   1  18
TORSDOF 3
